<?xml version="1.0" encoding="UTF-8"?>
<configuration>
    <input>
        <net-file value="network_big.net.xml"/>
        <route-files value="routes_big.rou.xml"/>
    </input>
    <time>
        <begin value="0"/>
        <end value="200"/>
        <step-length value="1.0"/>
    </time>
</configuration>
