<?xml version="1.0" encoding="UTF-8"?>

<!-- generated on 2025-12-11 18:32:52.846429 by Eclipse SUMO randomTrips.py v1_25_0+0000-ac6c5a6752d
<configuration>
    <net-file value="network_big.net.xml"/>
    <route-file value="routes_big.rou.xml"/>
    <length value="True"/>
    <end value="200.0"/>
</configuration>
-->

<!-- generated on 2025-12-11T18:32:52.683436+01:00 by Eclipse SUMO duarouter 1.25.0
<duarouterConfiguration xmlns:xsi="http://www.w3.org/2001/XMLSchema-instance" xsi:noNamespaceSchemaLocation="http://sumo.dlr.de/xsd/duarouterConfiguration.xsd">

    <input>
        <net-file value="network_big.net.xml"/>
        <route-files value="trips.trips.xml"/>
    </input>

    <output>
        <output-file value="routes_big.rou.xml"/>
        <alternatives-output value="NUL"/>
    </output>

    <time>
        <begin value="0"/>
        <end value="200.0"/>
    </time>

    <report>
        <no-warnings value="true"/>
        <ignore-errors value="true"/>
        <no-step-log value="true"/>
    </report>

</duarouterConfiguration>
-->

<routes xmlns:xsi="http://www.w3.org/2001/XMLSchema-instance" xsi:noNamespaceSchemaLocation="http://sumo.dlr.de/xsd/routes_file.xsd">
    <vehicle id="0" depart="0.00">
        <route edges="147544336#4 147544336#5 -147544336#5 -147544336#4 -147544336#3 -147544336#2 -147544336#1 -147544336#0 -410595862 -6237711 -6236861#1 -6236861#0 -38308772 -39969171#2 -39969171#1 -39969171#0 -1420929688 -20843985#2 -20843985#1 -20843985#0 -762939025#4 -762939025#3 -762939025#2 -762939025#1 -762939025#0 -229098967 -39963998#3 -39963998#2 -39963998#1 -39963998#0 -39969188 -229098964#1 -229098964#0 -154855753 -154855757 -10904573#7 -10904573#6 -10904573#5 -10904573#4 -10904573#3 10904898#0 10904898#1 -10904777#1 -10904777#0 -10904776#2 -10904776#1 -10904776#0"/>
    </vehicle>
    <vehicle id="1" depart="1.00">
        <route edges="-24767892#1 -24767892#0 1337696949#0 1337696949#1 1337696949#2 24326805#0 24326805#1 24326805#2 56077365#0 56077365#1 406865441 24326806 -6236861#0 -38308772 -39969171#2 -39969171#1 -39969171#0 -1420929688 -20843985#2 -20843985#1 -20843985#0 -762939025#4 -762939025#3 -762939025#2 -762939025#1 -762939025#0 -229098967 -39963998#3 -39963998#2 -39963998#1 -39963998#0 -39969188 -229098964#1 -229098964#0 -154855753 -154855757 -228276019#2 -228276019#1 -228276019#0 228276020#0 228276020#1 228276017 228276016#0 228276016#1 228276016#2 228276016#3 228276016#4 228276016#5 228276016#6 -228276016#6 -228276016#5 -228276016#4 -228276016#3"/>
    </vehicle>
    <vehicle id="2" depart="2.00">
        <route edges="234894697 -1339699749#0 56077365#1 406865441 24326806 -6236861#0 -38308772 -39969171#2 -39969171#1 -39969171#0 -1420929688 -20843985#2 -20843985#1 -20843985#0 -762939025#4 -762939025#3 -762939025#2 -762939025#1 -762939025#0 -229098967 -39963998#3 -39963998#2 -39963998#1 -39963998#0 -39969188 -229098964#1 -229098964#0 -154855753 -154855757 -228276019#2 -228276019#1 -228276019#0 228276020#0 228276020#1 -5156182 -228276021#1 -228276021#0 -6237712#10 -6237712#9 -6237712#8 -6237712#7 -6237712#6 -6237712#5 -6237712#4 -6237712#3 -6237712#2 -6237712#1 -24329295#1 -24329295#0 -8045719 154858919"/>
    </vehicle>
    <vehicle id="3" depart="3.00">
        <route edges="6236447 6236446 917053543 407506263#0 407506263#1 -233882109 -407506260#2 -407506260#1 -407506260#0 -407506259 -6237298 -5824295 -231422007 -5824292#1 -5824292#0 9828011 47253727#0 47253727#1 231422006#0 231422006#1 -228276016#11 -228276016#10 -228276016#9 -228276016#8 -228276016#7 -13078766#10 -13078766#9"/>
    </vehicle>
    <vehicle id="4" depart="4.00">
        <route edges="-8041389#3 -8041389#2 -8041389#1 -8041389#0 56077370#1 56077370#2 56077370#3 56077370#4 56077370#5 56077370#6 56077370#7 6237712#0 6237712#1 6237712#2 6237712#3 -10904776#6 -10904776#5"/>
    </vehicle>
    <vehicle id="5" depart="5.00">
        <route edges="-20914038 -1258530983#0 -154858683 -20842223#1 -20842223#0 47253725#2 410595883#0 410595883#1 410595883#2 1337688776#0 1337688776#1 1337688776#2 -762939025#4 -762939025#3 -762939025#2 -762939025#1 -762939025#0 -229098967 -39963998#3 -39963998#2 -39963998#1 -39963998#0 -39969188 -229098964#1 -229098964#0 -154855753 -154855757 -10904573#7 -10904573#6 -10904573#5 -10904573#4 -10904573#3 10904898#0 10904898#1 -10904777#1 -10904777#0 -10904776#2 -10905166#3 -10905166#2 -10905166#1 -10905166#0 10905166#0 10905166#1"/>
    </vehicle>
    <vehicle id="6" depart="6.00">
        <route edges="-10904776#1 10904776#1 10904776#2 10904777#0 10904777#1 -10904898#1 -10904898#0 10904573#3 10904573#4 10904573#5 10904573#6 10904573#7 154855757 154855753 229098964#0 229098964#1 39969188 174936179#0 174936179#1 305857539 147969053 622094812 5824297 248979080 39963996#0 39963996#1 154848492#0 154848492#1 154848492#2 20845797#0 20845797#1 -20845797#1"/>
    </vehicle>
    <vehicle id="7" depart="7.00">
        <route edges="147969053 622094812 5824297 248979080 5823687#0 5823687#1 5823685 233882110#0 233882110#1 702360742 -233882109 -407506260#2 -407506260#1 -407506260#0 -407506259 -6237298 -5824295 -231422007 -5824292#1 -5824292#0 9828011 47253727#0 47253727#1 231422006#0 231422006#1 70411313#0 70411313#1 70411313#2 70411313#3 70411313#4 13079051#0 13079051#1 13079051#2 13079051#3 13079051#4"/>
    </vehicle>
    <vehicle id="8" depart="8.00">
        <route edges="-20916011#0 -20842223#1 -20842223#0 47253725#2 410595883#0 410595883#1 410595883#2 1337688776#0 1337688776#1 1337688776#2 -762939025#4 -762939025#3 -762939025#2 -762939025#1 -762939025#0 -229098967 -39963998#3 -39963998#2 -39963998#1 -39963998#0 -39969188 -229098964#1 -229098964#0 -154855753 -154855757 -228276019#2 -228276019#1 -228276019#0 228276020#0 228276020#1 228276022#0 228276022#1 228276022#2 228276022#3 228276022#4 228276022#5 13078766#0 13078766#1 13878888#0 13878888#1 13878888#2 13878888#3"/>
    </vehicle>
    <vehicle id="9" depart="9.00">
        <route edges="39964087#0 39964087#1 39964087#2 39964087#3 -1337688776#2 -1337688776#1 -1337688776#0 -410595883#2 -410595883#1 -410595883#0 -47253725#2 20842223#0 20842223#1 20916011#0"/>
    </vehicle>
    <vehicle id="10" depart="10.00">
        <route edges="-5824488#1 -5824488#0 -231422008#2 -231422008#1 -231422008#0 -410595888 -150558356#1 -150558356#0 -150558359#2 -150558359#1 -150558359#0 13896564#0 -13898410"/>
    </vehicle>
    <vehicle id="11" depart="11.00">
        <route edges="8037704#10 10904775#0 10904775#1 10904775#2 10904775#3 10904775#4 10904574#0 10904574#1 10904573#0 10904573#1 10904573#2 10904573#3 10904573#4 10904573#5 10904573#6 10904573#7 154855757 154855753 229098964#0 229098964#1 39969188 174936179#0 174936179#1 305857539 147969053 622094812 5824297 248979080 5823687#0 5823687#1 5823685 233882110#0 233882110#1 702360742 -407506263#1 -407506263#0 -917053543 -6236446"/>
    </vehicle>
    <vehicle id="12" depart="12.00">
        <route edges="-13079051#4 -13079051#3 -13079051#2 -13079051#1 -13079051#0 -154858912#3 -154858912#2 -154858912#1 -154858912#0 -13079871#10 -13079871#9 -13079871#8 -13079871#7"/>
    </vehicle>
    <vehicle id="13" depart="13.00">
        <route edges="5823685 233882110#0 233882110#1 702360742 -233882109 -407506260#2 -407506260#1 -407506260#0 -407506259 -6237298 -5824295 -231422007 -5824292#1 -5824292#0 5824488#0 5824488#1 917053542 407506267 231422009 22744716 5824489 248979077 622094807 235913415 235913418 631327558 917053541 39969187 305857532 229098969#0 229098969#1 229098969#2 -154855753 13897609#0 13897609#1 13897609#2 13897609#3 13897609#4"/>
    </vehicle>
    <vehicle id="14" depart="14.00">
        <route edges="39964087#0 39964087#1 39964087#2 39964087#3 -762939025#4 -762939025#3 -762939025#2 -762939025#1 -762939025#0 -229098967 -39963998#3 -39963998#2 -39963998#1 -39963998#0 -39969188 -229098964#1 -229098964#0 -154855753 -154855757 -228276019#2 228276019#2"/>
    </vehicle>
    <vehicle id="15" depart="15.00">
        <route edges="10905382#2 -10905382#2 -10905382#1 -10905382#0 6275423#6 6275423#7 6275423#8 6275423#9 6275423#10 6275426#0 6275426#1 6275426#2 6275426#3 6275426#4 6275421#0 6275421#1 -56077370#6 -56077370#5 -56077370#4 -56077370#3 -56077370#2 -56077370#1 8041389#0 8041389#1 1345986490 8044082#0 8044082#1"/>
    </vehicle>
    <vehicle id="16" depart="16.00">
        <route edges="-6278248#0 10904776#6 6237712#4 6237712#5 6237712#6 6237712#7 6237712#8 6237712#9 6237712#10 228276021#0 228276021#1 5156182 228276017 228276016#0 228276016#1 228276016#2 228276016#3 228276016#4 228276016#5 228276016#6 228276016#7 228276016#8 228276016#9 13079871#0 13079871#1 13079871#2 13079871#3"/>
    </vehicle>
    <vehicle id="17" depart="17.00">
        <route edges="47253724 -154858683 -20842223#1 -20842223#0 47253725#2 13898714#0 13898714#1 13898714#2 13898715#0 13898715#1"/>
    </vehicle>
    <vehicle id="18" depart="18.00">
        <route edges="622094799 5824490 -22744716 -231422009 -407506267 223617169#0 223617169#1 223617169#2 231422006#0 231422006#1 -228276016#11 -228276016#10 -228276016#9 -228276016#8 13878281#0 13878335#0 13878453#0"/>
    </vehicle>
    <vehicle id="19" depart="19.00">
        <route edges="21138896#1 21138896#2 -21138897#1 -21138897#0 -39964088#1 1250183737 20919481#0 20919481#1 20919481#2 39964087#0 39964087#1 39964087#2 39964087#3 -762939025#4 -762939025#3 -762939025#2 -762939025#1 -762939025#0 -229098967 -39963998#3 -39963998#2 -39963998#1 -39963998#0 -39969188 -229098964#1 -229098964#0 -154855753 -154855757 -10904573#7 -10904573#6 -10904573#5 -10904573#4 -10904573#3 10904898#0 10904898#1 -10904777#1 -10904777#0 -10904776#2 -10904776#1 -10904776#0 -10905117"/>
    </vehicle>
    <vehicle id="20" depart="20.00">
        <route edges="-20919481#0 -1250183737 39964088#1 21138897#0 21138897#1 21138897#2 21138897#3 21138897#4 21138897#5 21138897#6 21138897#7 21138897#8 -154848492#2 -154848492#1 -154848492#0 -39963996#1 -39963996#0"/>
    </vehicle>
    <vehicle id="21" depart="21.00">
        <route edges="-13077661 -62212358#1 -62212358#0 -67332277#2 -67332277#1 -67332277#0 -228276016#11 -228276016#10 -228276016#9 -228276016#8 -228276016#7 -228276016#6 -228276016#5 -228276016#4 -228276016#3 -228276016#2 -228276016#1 -228276016#0 13077658 154855754#0 154855754#1 228276018 228276019#0 228276019#1 228276019#2 154855757 154855753 229098964#0 229098964#1 39969188 39963998#0 39963998#1 39963998#2 39963998#3 229098967 -229098967"/>
    </vehicle>
    <vehicle id="22" depart="22.00">
        <route edges="-13079871#8 -13079871#7 -13079871#6 -13079871#5 -13079871#4 -13079871#3 -13079871#2 -13079871#1 -13079871#0 -228276016#9 -228276016#8 -228276016#7 -228276016#6 -228276016#5 -228276016#4 -228276016#3 -228276016#2 -228276016#1 -228276016#0 13077658 154855754#0 154855754#1 228276018 228276019#0 228276019#1 228276019#2 154855757 154855753 229098964#0 229098964#1 39969188 39963998#0 39963998#1 39963998#2 39963998#3 229098967 762939025#0 762939025#1 762939025#2 762939025#3 762939025#4 20843985#0 20843985#1 20843985#2 1420929688 39969171#0 39969171#1 39969171#2 38308772 6236861#0 -24326806 -406865441 -56077365#1 1339699749#0 1339699749#1 24767573 154853781 154853784 24767571#2 -24327011#1 -24327011#0 -24771967"/>
    </vehicle>
    <vehicle id="23" depart="23.00">
        <route edges="1453095939#1 1453095939#2 -1453095939#2 -1453095939#1 -1453095939#0 -8041389#5 -8041389#4 10904362 8037750#0 6278394#0 -6278242#2"/>
    </vehicle>
    <vehicle id="24" depart="24.00">
        <route edges="-6275423#10 -6275423#9 -6275423#8 -6275423#7 -6275423#6 6275423#6 6275423#7 6275423#8 6275423#9 6275423#10 6275426#0 6275426#1 6275426#2 6275426#3 6275426#4 6275421#0 6275421#1 56077370#7 6237712#0 6237712#1 6237712#2 6237712#3 6237712#4 6237712#5 6237712#6 6237712#7 6237712#8 6237712#9 6237712#10 228276023#0 228276023#1 228276018 228276019#0 228276019#1 228276019#2 154855757 154855753 229098964#0 229098964#1 39969188 39963998#0 39963998#1 39963998#2 39963998#3 229098967 762939025#0 762939025#1 762939025#2 762939025#3 762939025#4 20843985#0 20843985#1 20843985#2 1420929688 20917082 39963995#0 39963995#1 -20918125#1 -20918125#0 -20918124#8 -20918124#7 -20918124#6 -20918124#5 -20918124#4 -20918124#3 -20918124#2 -20918124#1 -20918124#0"/>
    </vehicle>
    <vehicle id="25" depart="25.00">
        <route edges="-24767569#0 -154853781 -24767573 -1339699749#1 -1339699749#0 56077365#1 406865441 24326806 -6236861#0 -38308772 -39969171#2 -39969171#1 -39969171#0 -1420929688 -20843985#2 -20843985#1 -20843985#0 -762939025#4 -762939025#3 -762939025#2 -762939025#1 -762939025#0 -229098967 -39963998#3 -39963998#2 -39963998#1 -39963998#0 -39969188 -229098964#1 -229098964#0 -154855753 -154855757 -228276019#2 -228276019#1 -228276019#0 228276020#0 228276020#1 228276017 228276016#0 228276016#1 228276016#2 228276016#3 228276016#4 228276016#5 228276016#6 228276016#7 228276016#8 228276016#9 228276016#10 228276016#11 67332277#0 67332277#1"/>
    </vehicle>
    <vehicle id="26" depart="26.00">
        <route edges="147969053 622094812 5824297 248979080 5823687#0 5823687#1 5823685 233882110#0 233882110#1 702360742 -233882109 -407506260#2 -407506260#1 -407506260#0 -407506259 -6237298 -5824295 -231422007 -5824292#1 -5824292#0 5824488#0 5824488#1 917053542 407506267 231422009 22744716 5824489 248979077 622094807 235913415 235913418 631327558 917053541 39969187 305857532 229098969#0 229098969#1 229098969#2 -154855753 13897609#0 13897609#1 13898170#0 13898170#1"/>
    </vehicle>
    <vehicle id="27" depart="27.00">
        <route edges="-147670187#0 -13080177 6275426#0 6275426#1 6275426#2 6275426#3 6275426#4 6275421#0 6275421#1 56077370#7 6237712#0 6237712#1 6237712#2 6237712#3 6237712#4 6237712#5 6237712#6 6237712#7 6237712#8 6237712#9 6237712#10 228276023#0 228276023#1 228276018"/>
    </vehicle>
    <vehicle id="28" depart="28.00">
        <route edges="-13899409 -13898714#0 410595883#0 410595883#1 410595883#2 1337688776#0 1337688776#1 1337688776#2 -762939025#4 -762939025#3 -762939025#2 -762939025#1 -762939025#0 -229098967 -39963998#3 -39963998#2 -39963998#1 -39963998#0 -39969188 -229098964#1 -229098964#0 -154855753 -154855757 -228276019#2 -228276019#1 -228276019#0 228276020#0 228276020#1 -5156182 -228276021#1 -228276021#0 -6237712#10 -6237712#9 -6237712#8 -6237712#7 -6237712#6 -6237712#5 -6237712#4 -6237712#3 -6237712#2 -6237712#1 -6237712#0 -56077370#7 -56077370#6 -56077370#5 8045508#0 8045508#1 8045675#0 8045675#1 8045675#2 8045675#3 8045675#4 8045508#3 -8045507#1 -8045507#0 -67332275#1"/>
    </vehicle>
    <vehicle id="29" depart="29.00">
        <route edges="8045645#0 8045645#1 154859377 8045507#1 8045507#2 8045507#3 6275421#0 6275421#1 56077370#7 6237712#0 6237712#1 6237712#2 6237712#3 6237712#4 6237712#5 6237712#6 6237712#7 6237712#8 6237712#9 6237712#10 228276023#0 228276023#1 228276018 228276019#0 228276019#1 228276019#2 154855757 154855753 229098964#0 229098964#1 39969188 174936179#0 174936179#1 305857539 147969053"/>
    </vehicle>
    <vehicle id="30" depart="30.00">
        <route edges="13078766#9 13078766#10 -228276016#6 -228276016#5 -228276016#4 -228276016#3 -228276016#2 -228276016#1 -228276016#0 13077658 154855754#0 154855754#1 228276018 228276019#0 228276019#1 228276019#2 154855757 154855753 229098964#0 229098964#1 39969188 39963998#0 39963998#1 39963998#2 39963998#3 229098967 762939025#0 762939025#1 762939025#2 762939025#3 762939025#4 20843985#0 20843985#1 20843985#2 1420929688 20917082 39963995#0 39963995#1 39963995#2 39963995#3 -39964090 20845796"/>
    </vehicle>
    <vehicle id="31" depart="31.00">
        <route edges="56077370#2 56077370#3 56077370#4 56077370#5 56077370#6 56077370#7 6237712#0 6237712#1 6237712#2 6237712#3 6237712#4 6237712#5 6237712#6 6237712#7 6237712#8 6237712#9 6237712#10 228276023#0 228276023#1 228276018 228276019#0 228276019#1 228276019#2 154855757 154855753 229098964#0 229098964#1 39969188 39963998#0 39963998#1 39963998#2 39963998#3 229098967 762939025#0 762939025#1 762939025#2 762939025#3 762939025#4 20843985#0 20843985#1 20843985#2 1420929688 39969171#0 39969171#1 39969171#2 38308772 6236861#0 -24326806 -406865441 -56077365#1 -56077365#0 -24326805#2 -24326805#1 -24326805#0 -1337696949#2 -1337696949#1 -1337696949#0 24767892#0 24767892#1 24767894#0 24767894#1 24767894#2 24767893#0 24767893#1 24767893#2 24767893#3"/>
    </vehicle>
    <vehicle id="32" depart="32.00">
        <route edges="-20919481#1 -20919481#0 -1250183737 -39964088#0 20918702#0 20918702#1 20918702#2 39964087#0 39964087#1 39964087#2 39964087#3 -762939025#4 -762939025#3 -762939025#2 -762939025#1 -762939025#0 -229098967 -39963998#3 -39963998#2 -39963998#1 -39963998#0 -39969188 -229098964#1 -229098964#0 -154855753 -154855757 -10904573#7 -10904573#6 -10904573#5 -10904573#4 -10904573#3 10904898#0 10904898#1 -10904777#1 -10904777#0"/>
    </vehicle>
    <vehicle id="33" depart="33.00">
        <route edges="-410595883#2 -410595883#1 410595883#1 410595883#2 1337688776#0 1337688776#1 1337688776#2 20843985#0 20843985#1 20843985#2 1420929688 39969171#0 39969171#1 39969171#2 38308772 6236861#0 -24326806 -406865441 -56077365#1 -56077365#0 -24326805#2 -24326805#1 -24326805#0 -1337696949#2 -1337696949#1 -1337696949#0 24767892#0 24767892#1 24767894#0 -24771947#3 -24771947#2 -24771947#1 -24771947#0 -24771948#5 -24771948#4 -24771948#3 -24771948#2 -24771948#1 -24771948#0 -24771946#4 -24767895#3 -24767895#2"/>
    </vehicle>
    <vehicle id="34" depart="34.00">
        <route edges="-20845797#4 -20845797#3 -20845797#2 -20845797#1 -20845797#0 -154848492#2 -154848492#1 -154848492#0 -39963996#1 -39963996#0 5823687#0 5823687#1 5823685 233882110#0 233882110#1 702360742 -233882109 -407506260#2 -407506260#1 -407506260#0 -407506259 -6237298 -5824295 -231422007 -5824292#1 -5824292#0 9828011 47253727#0 47253727#1 231422006#0 231422006#1 70411313#0 70411313#1 70411313#2"/>
    </vehicle>
    <vehicle id="35" depart="35.00">
        <route edges="622113447 775627724 775627725 775627726 39986333 305857530 622113444 622113445#0 622113445#1 622113445#2 -39969188 -229098964#1 -229098964#0 -154855753 -154855757 -228276019#2 -228276019#1 -228276019#0 228276020#0 228276020#1 -5156182 -228276021#1 -228276021#0 -6237712#10 -6237712#9 -6237712#8 -6237712#7 -6237712#6 -6237712#5 -6237712#4 -6237712#3 -6237712#2 -6237712#1 -6237712#0 -56077370#7 -56077370#6 -56077370#5 -56077370#4 -56077370#3 -56077370#2 -56077370#1 -56077370#0 -1345986488 8045381#0 8045381#1 154859376#0 154859376#1 154859376#2 154859376#3 154859376#4 -47253748"/>
    </vehicle>
    <vehicle id="36" depart="36.00">
        <route edges="150558359#0 150558359#1 150558359#2 150558356#0 150558356#1 410595888 -410595888 -150558356#1 -150558356#0 -150558359#2 -150558359#1 -150558359#0 -228276022#7 -228276022#6 -228276022#5 -228276022#4 -228276022#3 -228276022#2 -228276022#1 -228276022#0 -5156182 -228276021#1 -228276021#0 -6237712#10 -6237712#9 -6237712#8 -6237712#7 -6237712#6 -6237712#5 -6237712#4 -10904776#6 -10904776#5 -6278394#2 6279454 10904575#3 10904575#4 10904575#5 10904575#6 10904575#7 -8037704#12 -8037704#11"/>
    </vehicle>
    <vehicle id="37" depart="37.00">
        <route edges="6275426#3 6275426#4 6275421#0 6275421#1 56077370#7 6237712#0 6237712#1 6237712#2 6237712#3 6237712#4 6237712#5 6237712#6 6237712#7 10904499 10904500 10904573#1 10904573#2 10904573#3 10904573#4 10904573#5"/>
    </vehicle>
    <vehicle id="38" depart="38.00">
        <route edges="-24327011#4 -24327011#3 -24327011#2 -24767571#2 -154853784 -154853781 -24767573 -1339699749#1 -1339699749#0 -56077365#0 -24326805#2 -24326805#1 -24326805#0"/>
    </vehicle>
    <vehicle id="39" depart="39.00">
        <route edges="13079867#0 13079867#1 13079867#2 13079867#3 13079867#4 13079867#5 281266342 -228276016#7 -228276016#6 -228276016#5 -228276016#4 -228276016#3 -228276016#2 -228276016#1 -228276016#0 13077658 154855754#0 154855754#1 228276018 228276019#0 228276019#1 228276019#2 154855757 154855753 229098964#0 229098964#1 39969188 39963998#0 39963998#1 39963998#2 39963998#3 229098967 762939025#0 762939025#1 762939025#2 762939025#3 762939025#4 20843985#0 20843985#1 20843985#2 1420929688 39969171#0 39969171#1 39969171#2 38308772 6236861#0 -24326806 -406865441 -56077365#1 -56077365#0 -24326805#2 -24326805#1 -24326805#0 -1337696949#2 -1337696949#1 -1337696949#0 24767892#0 24767892#1 24767894#0 24767894#1 24767894#2 24767893#0 24767893#1 24767893#2 24767893#3 24767893#4 -24767893#4 -24767893#3"/>
    </vehicle>
    <vehicle id="40" depart="40.00">
        <route edges="13878281#0 -13878281#0 -228276016#7 -228276016#6 -228276016#5 -228276016#4 -228276016#3 -228276016#2 -228276016#1 -228276016#0 13077658 -228276021#1 -228276021#0 -6237712#10 -6237712#9 -6237712#8 -6237712#7 -6237712#6 -6237712#5 -6237712#4 -6237712#3 6237712#3"/>
    </vehicle>
    <vehicle id="41" depart="41.00">
        <route edges="-70411313#1 -70411313#0 -231422006#1 -231422006#0 -47253727#1 -47253727#0 -9828011 5824292#0 5824292#1 231422007 5824295 6237298 407506259 233882112#0 233882112#1 233882112#2 233882111 -5823685 40818759 40818760 248979080 39963996#0 39963996#1 154848492#0 154848492#1 154848492#2 -21138897#8 -21138897#7 -21138897#6 -21138897#5 -21138897#4"/>
    </vehicle>
    <vehicle id="42" depart="42.00">
        <route edges="-13079051#1 -13079051#0 -154858912#3 -154858912#2 -154858912#1 -154858912#0 -154858913 -154858909 -154858915 -154858914#1 -154858914#0 -154858917 10905300#0 10905300#1 10905300#2 10905300#3 10905300#4 -10904776#6 -10904776#5 -10904776#4 -10904776#3 -10904776#2 -10904776#1 10905165#0 10905165#1 10905165#2 10905165#3 10905165#4 10905165#5 10905165#6 -10905165#6 -10905165#5 -10905165#4 -10905165#3 -10905165#2 -10905165#1 -10905165#0"/>
    </vehicle>
    <vehicle id="43" depart="43.00">
        <route edges="-13843746#1 -13843746#0 6275423#0 6275423#1 6275423#2 6275423#3 6275423#4 6275423#5 6275423#6 6275423#7 6275423#8 6275423#9 6275423#10 13080177 147670187#0"/>
    </vehicle>
    <vehicle id="44" depart="44.00">
        <route edges="305857539 147969053 622094812 5824297 248979080 5823687#0 5823687#1 5823685 233882110#0 233882110#1 702360742 -233882109 -407506260#2 -407506260#1 -407506260#0 -407506259 -6237298 -5824295 -231422007 -5824292#1 -5824292#0 -231422008#2 -231422008#1 -231422008#0 -410595888 -150558356#1 -150558356#0 -150558359#2 -150558359#1 -150558359#0 -228276022#7 -228276022#6 -228276022#5 -228276022#4 -228276022#3 -228276022#2 -228276022#1 -228276022#0 -5156182 -228276021#1 -228276021#0 -6237712#10 -6237712#9 -6237712#8 -6237712#7 -6237712#6 -6237712#5 -6237712#4 -6237712#3 -6237712#2 -6237712#1 -6237712#0 -56077370#7 -56077370#6 -56077370#5 -56077370#4 -56077370#3 -56077370#2 -56077370#1 -56077370#0 -1345986488 8045381#0 8045381#1 154859376#0 154859376#1 -8045588#1"/>
    </vehicle>
    <vehicle id="45" depart="45.00">
        <route edges="-10905348 -10905299#0 154858920 13027832#0 13027832#1 1317134762#0 1317134762#1 1317134763#0 1317134763#1 1317134763#2 154858913 154858912#0 154858912#1 154858912#2 154858912#3 -70411313#4 -70411313#3 -70411313#2 -70411313#1 -70411313#0 67332277#0 67332277#1 67332277#2 -67332277#2"/>
    </vehicle>
    <vehicle id="46" depart="46.00">
        <route edges="8045719 24329295#0 -24329295#0 -8045719 154858919 154858920 13027832#0 13027832#1"/>
    </vehicle>
    <vehicle id="47" depart="47.00">
        <route edges="8041389#5 -8041202#4 -8041202#3 -8041202#2 -8041202#1 -8041202#0 10904775#0 10904775#1 10904775#2 10904775#3 10904775#4 10904574#0 10904574#1 10904573#0 10904573#1 10904573#2 10904573#3 10904573#4 10904573#5 10904573#6 10904573#7 154855757 154855753 229098964#0 229098964#1 39969188 174936179#0 174936179#1 305857539 147969053 622094812 5824297 248979080 5823687#0 5823687#1 40818759 5824298"/>
    </vehicle>
    <vehicle id="48" depart="48.00">
        <route edges="-10904366 -10904365 10904363#1 8037750#4 56077370#4 56077370#5 56077370#6 56077370#7 6237712#0 6237712#1 6237712#2 223226574"/>
    </vehicle>
    <vehicle id="49" depart="49.00">
        <route edges="20845796 21138896#0 21138896#1 21138896#2 -21138897#1 -21138897#0 -39964088#1 1250183737 20919481#0 20919481#1 20919481#2 39964087#0 39964087#1 39964087#2 39964087#3 -762939025#4 -762939025#3 -762939025#2 -762939025#1 -762939025#0 -229098967 -39963998#3 -39963998#2 -39963998#1 -39963998#0 -39969188 -229098964#1 -229098964#0 -154855753 -154855757 -228276019#2 -228276019#1 -228276019#0 228276020#0 228276020#1 -5156182 -228276021#1 -228276021#0 -6237712#10 -6237712#9 -6237712#8 -6237712#7 -6237712#6 -6237712#5 9828480#0 9828480#1 154858910 154858916#0 154858916#1 13077666#0 13077666#1 13077666#2 13077666#3 13077666#4 13077666#5"/>
    </vehicle>
    <vehicle id="50" depart="50.00">
        <route edges="-24767569#0 -154853781 -24767573 -1339699749#1 -1339699749#0 56077365#1 406865441 24326806 -6236861#0 -38308772 -39969171#2 -39969171#1 -39969171#0 -1420929688 -20843985#2 -20843985#1 -20843985#0 -762939025#4 -762939025#3 -762939025#2 -762939025#1 -762939025#0 -229098967 -39963998#3 -39963998#2 -39963998#1 -39963998#0 -39969188 174936180 305857531 917053540 147969055"/>
    </vehicle>
    <vehicle id="51" depart="51.00">
        <route edges="-13875818#2 -13875818#1 13875818#1 13875818#2 13875818#3 13875818#4 -228276022#7 -228276022#6 -228276022#5 -228276022#4 -228276022#3 -228276022#2 -228276022#1 -228276022#0 -5156182 154855754#0 154855754#1 228276018 228276019#0 228276019#1 228276019#2 154855757 154855753 229098964#0 229098964#1 39969188 39963998#0 39963998#1 39963998#2 39963998#3 229098967 762939025#0 762939025#1 762939025#2 762939025#3 762939025#4 20843985#0 20843985#1 20843985#2 1420929688 20917082 39963995#0 39963995#1 39963995#2 39963995#3 39969172 39964088#0 39964088#1 1080942050#0 1080942050#1 1080942050#2"/>
    </vehicle>
    <vehicle id="52" depart="52.00">
        <route edges="10904362 -1037077323 -8037704#12 -8037704#11 -8037704#10 -8037704#9 -8037704#8 -8037704#7 -8037704#6 -8037704#5 -8037704#4 -8037704#3 -8037704#2 -8037704#1 8037704#1"/>
    </vehicle>
    <vehicle id="53" depart="53.00">
        <route edges="622113447 775627724 775627725 775627726 39986333 305857530 622113444 229098970#0 229098970#1 229098970#2 229098967 762939025#0 762939025#1 762939025#2 762939025#3 762939025#4 20843985#0 20843985#1 20843985#2 1420929688 39969171#0 39969171#1 39969171#2 38308772 6236861#0 -24326806 -406865441 -56077365#1 -56077365#0 -24326805#2 -24326805#1 -24326805#0 -1337696949#2 -1337696949#1 -1337696949#0 24767892#0 24767892#1 24767894#0 -24767894#0"/>
    </vehicle>
    <vehicle id="54" depart="54.00">
        <route edges="10904940 -10904940 10904573#6 10904573#7 154855757 154855753 229098964#0 229098964#1 39969188 39963998#0 39963998#1 39963998#2 39963998#3 229098967 762939025#0 762939025#1 762939025#2 762939025#3 762939025#4 20843985#0 20843985#1 20843985#2 1420929688 39969171#0 39969171#1 39969171#2 38308772 6236861#0 -24326806 -406865441 -56077365#1 1339699749#0 1339699749#1 24767573 154853781 154853784 -154853784"/>
    </vehicle>
    <vehicle id="55" depart="55.00">
        <route edges="6275423#8 6275423#9 6275423#10 6275426#0 6275426#1 6275426#2 6275426#3 6275426#4 6275421#0 6275421#1 56077370#7 6237712#0 6237712#1 6237712#2 6237712#3 6237712#4 6237712#5 6237712#6 6237712#7 6237712#8 6237712#9 6237712#10 228276023#0 228276023#1 228276018 228276019#0 228276019#1 228276019#2 154855757 154855753 229098964#0 229098964#1 39969188 174936179#0 174936179#1 305857539 147969053 622094812 235913419 39964091 622094809 622094804"/>
    </vehicle>
    <vehicle id="56" depart="56.00">
        <route edges="-39963995#1 -39963995#0 39963995#0 39963995#1 39963995#2 39963995#3 39969172 20918702#0 20918702#1 20918702#2 39964087#0 39964087#1 39964087#2 39964087#3 -762939025#4 -762939025#3 -762939025#2 -762939025#1 -762939025#0 -229098967 -39963998#3 -39963998#2 -39963998#1 -39963998#0 174936179#0 174936179#1 305857539 147969053"/>
    </vehicle>
    <vehicle id="57" depart="57.00">
        <route edges="13897088#1 13897088#2 13897088#3 -13878888#0 -13078766#1 -13078766#0 228276022#6 13898342#0 13898342#1 -13898342#1"/>
    </vehicle>
    <vehicle id="58" depart="58.00">
        <route edges="24767892#0 24767892#1 24767894#0 -24767894#0 -24767892#1 -24767892#0 1337696949#0 1337696949#1 1337696949#2 24326805#0 24326805#1 24326805#2 56077365#0 56077365#1 406865441 24326806 -6236861#0 -38308772 -39969171#2 -39969171#1 -39969171#0 -1420929688 -20843985#2 -20843985#1 -20843985#0 -762939025#4 -762939025#3 -762939025#2 -762939025#1 -762939025#0 -229098967 -39963998#3 -39963998#2 -39963998#1 -39963998#0 -39969188 -229098964#1 -229098964#0 -154855753 -154855757 -228276019#2 -228276019#1 -228276019#0 228276020#0 228276020#1 -5156182 -228276021#1 -228276021#0 -6237712#10 -6237712#9 -6237712#8 -6237712#7 -6237712#6 -6237712#5 9828480#0 9828480#1 154858910 154858916#0 154858916#1 13077666#0 13077666#1 13077666#2 13077666#3 13077666#4 13077666#5 13077666#6 13077666#7 13077666#8 13077666#9"/>
    </vehicle>
    <vehicle id="59" depart="59.00">
        <route edges="24771947#0 24771947#1 24771947#2 24771947#3 -24767894#0 -24767892#1 -24767892#0 1337696949#0 1337696949#1 1337696949#2 24326805#0 24326805#1 24326805#2 56077365#0 56077365#1 406865441 24326806 -6236861#0 -38308772 -39969171#2 -39969171#1 -39969171#0 -1420929688 -20843985#2 -20843985#1 -20843985#0 -762939025#4 -762939025#3 -762939025#2 -762939025#1 -762939025#0 -229098967 -39963998#3 -39963998#2 -39963998#1 -39963998#0 -39969188 -229098964#1 -229098964#0 -154855753 -154855757 -228276019#2 -228276019#1 -228276019#0 228276020#0 228276020#1 -5156182 -228276021#1 -228276021#0 -6237712#10 -6237712#9 -6237712#8 -6237712#7 -6237712#6 -6237712#5 -6237712#4 -6237712#3 -6237712#2 -10905299#3 -10905299#2 -10905299#1 -10905299#0 154858920 13027832#0 13027832#1 1317134762#0 13028861"/>
    </vehicle>
    <vehicle id="60" depart="60.00">